    &HEAD CHID='candle_medium_dx5', TITLE='candle compartment -- 1 candle(s), near-fire dx=5.0 mm, SEALED box' /

    ! ============================================================
    !  MESH  --  D* = 1.21 cm for a 18 W fire
    !  near-fire dx = 5.0 mm  ->  D*/dx = 2.4
    !  (FDS convention wants ~10-16; a 18 W candle plume is near the
    !   lower edge of FDS's validated envelope -- this is a KNOWN weak point,
    !   quantified by the P04 mesh study, not hidden.)
    ! ============================================================
    &MESH IJK=200,60,100, XB=0.000,1.000,0.000,0.300,0.000,0.500 / whole domain, dx=5.0 mm

    &TIME T_END=250.0 /
    &MISC TMPA=25.0 /           ! exponat R1 pre-ignition TC median ~25 C
    &DUMP DT_DEVC=1.0, DT_HRR=1.0, DT_SLCF=5.0, DT_BNDF=10.0, SIG_FIGS=6 /

    ! ============================================================
    !  COMBUSTION  --  source term from CONE_FINDINGS.md (NOT calibrated here)
    !  18 W per candle (measured band 16-20 W; total source uncertainty +-15-20%)
    !  paraffin, clean flame (cone soot ~ 0), constant HRR (balance mass-loss
    !  linear to r^2 > 0.999) with a 25 s ignition ramp.
    ! ============================================================
    &SPEC ID='PARAFFIN', FORMULA='C25H52' /
    &REAC FUEL='PARAFFIN', SOOT_YIELD=0.008, CO_YIELD=0.001,
          HEAT_OF_COMBUSTION=42000, RADIATIVE_FRACTION=0.25 /

    &SURF ID='CANDLE_FLAME', HRRPUA=14.69, TAU_Q=-25.0, COLOR='ORANGE' /
    ! HRRPUA 14.69 kW/m2 x 12.25 cm2 = 18.0 W per candle
    ! (target cup area 10.8 cm2 = 37 mm circle; grid-snapped square = 12.25 cm2)

    &PROP ID='TCbead', EMISSIVITY=0.85, DIAMETER=0.001 /  ! 1 mm bare-wire bead (assumed)

    ! ============================================================
    !  WALLS  --  10 mm acrylic/PMMA, NOT inert (matters for a long low-power burn)
    !  k=0.19 W/mK, rho=1180, c=1.47 kJ/kgK, eps=0.9  (standard cast PMMA)
    !  BACKING='EXPOSED' -> outer face loses heat to lab air at TMPA
    ! ============================================================
    &MATL ID='PMMA', CONDUCTIVITY=0.19, SPECIFIC_HEAT=1.47, DENSITY=1180.0, EMISSIVITY=0.90 /
    &SURF ID='ACRYLIC_WALL', MATL_ID='PMMA', THICKNESS=0.010, BACKING='EXPOSED',
          COLOR='SKY BLUE', TRANSPARENCY=0.2 /

    ! ---- SEALED outer box: every domain face is closed acrylic (user correction) ----
    &VENT MB='XMIN', SURF_ID='ACRYLIC_WALL' /
    &VENT MB='XMAX', SURF_ID='ACRYLIC_WALL' /
    &VENT MB='YMIN', SURF_ID='ACRYLIC_WALL' /
    &VENT MB='YMAX', SURF_ID='ACRYLIC_WALL' /
    &VENT MB='ZMIN', SURF_ID='ACRYLIC_WALL' /
    &VENT MB='ZMAX', SURF_ID='ACRYLIC_WALL' /

    ! ============================================================
    !  ROOM  --  0-0.70 x, full depth, 0-0.23 z; 10 mm acrylic walls
    !  (room spans the full box depth, so its side walls ARE the box side walls;
    !   its back wall IS the box XMIN face -- only ceiling + doorway wall are OBSTs)
    ! ============================================================
    &OBST XB=0.000,0.710, 0.000,0.300, 0.230,0.240, SURF_ID='ACRYLIC_WALL', TRANSPARENCY=0.2 / room ceiling
    &OBST XB=0.700,0.710, 0.000,0.300, 0.000,0.230, SURF_ID='ACRYLIC_WALL', TRANSPARENCY=0.2 / doorway wall
    &HOLE XB=0.695,0.715, 0.125,0.175, -0.001,0.150 / doorway 0.05 w x 0.15 h, depth-centred

    ! ============================================================
    !  FIRE
    ! ============================================================
    &OBST XB=0.070,0.105,0.130,0.165,0.000,0.010, SURF_IDS='CANDLE_FLAME','ACRYLIC_WALL','ACRYLIC_WALL', COLOR='RED' / candle 1 cup, flame on top

    ! ============================================================
    !  DEVICES  --  7 experimental TCs: modelled bead ('T1'..) + gas temp ('T1_gas'..)
    !  Names match the experiment 1:1 for P05 pairing.
    ! ============================================================
    &DEVC ID='T1',     XYZ=0.120,0.150,0.050, QUANTITY='THERMOCOUPLE', PROP_ID='TCbead' /
&DEVC ID='T1_gas', XYZ=0.120,0.150,0.050, QUANTITY='TEMPERATURE' /
&DEVC ID='T2',     XYZ=0.120,0.150,0.160, QUANTITY='THERMOCOUPLE', PROP_ID='TCbead' /
&DEVC ID='T2_gas', XYZ=0.120,0.150,0.160, QUANTITY='TEMPERATURE' /
&DEVC ID='T3',     XYZ=0.120,0.150,0.225, QUANTITY='THERMOCOUPLE', PROP_ID='TCbead' /
&DEVC ID='T3_gas', XYZ=0.120,0.150,0.225, QUANTITY='TEMPERATURE' /
&DEVC ID='T5',     XYZ=0.350,0.150,0.225, QUANTITY='THERMOCOUPLE', PROP_ID='TCbead' /
&DEVC ID='T5_gas', XYZ=0.350,0.150,0.225, QUANTITY='TEMPERATURE' /
&DEVC ID='T9',     XYZ=0.700,0.150,0.015, QUANTITY='THERMOCOUPLE', PROP_ID='TCbead' /
&DEVC ID='T9_gas', XYZ=0.700,0.150,0.015, QUANTITY='TEMPERATURE' /
&DEVC ID='T10',     XYZ=0.700,0.150,0.075, QUANTITY='THERMOCOUPLE', PROP_ID='TCbead' /
&DEVC ID='T10_gas', XYZ=0.700,0.150,0.075, QUANTITY='TEMPERATURE' /
&DEVC ID='T11',     XYZ=0.700,0.150,0.140, QUANTITY='THERMOCOUPLE', PROP_ID='TCbead' /
&DEVC ID='T11_gas', XYZ=0.700,0.150,0.140, QUANTITY='TEMPERATURE' /
    &DEVC ID='HRR', QUANTITY='HRR', SPATIAL_STATISTIC='VOLUME INTEGRAL', XB=0.00,1.00,0.00,0.30,0.00,0.50 /
    &DEVC ID='O2_room', QUANTITY='VOLUME FRACTION', SPEC_ID='OXYGEN', XYZ=0.35,0.15,0.115 /
    &DEVC ID='p_box',  QUANTITY='PRESSURE', XYZ=0.50,0.15,0.40 /

    ! ---- Phase-4 smoke tracer (DORMANT: no source until P04/P05 adds MASS_FLUX
    !      to the candle rim). Kept here so the SPEC id is stable. ----
    ! &SPEC ID='TRACER', MASS_FRACTION_0=0.0 /
    ! &DEVC ID='tracer_T3', QUANTITY='MASS FRACTION', SPEC_ID='TRACER', XYZ=0.12,0.15,0.225 /

    ! ============================================================
    !  OUTPUT  --  lean: centre-plane temperature + velocity, wall temp
    ! ============================================================
    &SLCF PBY=0.15, QUANTITY='TEMPERATURE', CELL_CENTERED=.TRUE. /
    &SLCF PBY=0.15, QUANTITY='VELOCITY', VECTOR=.TRUE. /
    &BNDF QUANTITY='WALL TEMPERATURE' /

    &TAIL /
