    &HEAD CHID='w4_contact', TITLE='candle compartment -- 1 candle(s), near-fire dx=5.0 mm, SEALED box' /
    !  SOURCE/WALL SWEEP -> wall=contact

    ! ============================================================
    !  MESH  --  D* = 1.21 cm for a 18 W fire
    !  near-fire dx = 5.0 mm  ->  D*/dx = 2.4
    !  (FDS convention wants ~10-16; a 18 W candle plume is near the
    !   lower edge of FDS's validated envelope -- this is a KNOWN weak point,
    !   quantified by the P04 mesh study, not hidden.)
    ! ============================================================
    &MESH ID='m0', MPI_PROCESS=0, IJK=50,60,50, XB=0.0000,0.2500,0.0000,0.3000,0.0000,0.2500 / dx=5.0 mm  (0,0,0)
&MESH ID='m1', MPI_PROCESS=1, IJK=50,60,50, XB=0.0000,0.2500,0.0000,0.3000,0.2500,0.5000 / dx=5.0 mm  (0,0,1)
&MESH ID='m2', MPI_PROCESS=2, IJK=50,60,50, XB=0.2500,0.5000,0.0000,0.3000,0.0000,0.2500 / dx=5.0 mm  (1,0,0)
&MESH ID='m3', MPI_PROCESS=3, IJK=50,60,50, XB=0.2500,0.5000,0.0000,0.3000,0.2500,0.5000 / dx=5.0 mm  (1,0,1)
&MESH ID='m4', MPI_PROCESS=4, IJK=50,60,50, XB=0.5000,0.7500,0.0000,0.3000,0.0000,0.2500 / dx=5.0 mm  (2,0,0)
&MESH ID='m5', MPI_PROCESS=5, IJK=50,60,50, XB=0.5000,0.7500,0.0000,0.3000,0.2500,0.5000 / dx=5.0 mm  (2,0,1)
&MESH ID='m6', MPI_PROCESS=6, IJK=50,60,50, XB=0.7500,1.0000,0.0000,0.3000,0.0000,0.2500 / dx=5.0 mm  (3,0,0)
&MESH ID='m7', MPI_PROCESS=7, IJK=50,60,50, XB=0.7500,1.0000,0.0000,0.3000,0.2500,0.5000 / dx=5.0 mm  (3,0,1)
! 8 meshes / MPI ranks  (uniform split 4x1x2, 1.20 M cells)

    &TIME T_END=350.0 /
    &MISC TMPA=25.0 /           ! exponat R1 pre-ignition TC median ~25 C
    &DUMP DT_DEVC=1.0, DT_HRR=1.0, DT_SLCF=5.0, DT_BNDF=10.0, SIG_FIGS=6 /

    ! ============================================================
    !  COMBUSTION  --  source term from CONE_FINDINGS.md (NOT calibrated here)
    !  18 W per candle (measured band 16-20 W; total source uncertainty +-15-20%)
    !  paraffin, clean flame (cone soot ~ 0), constant HRR (balance mass-loss
    !  linear to r^2 > 0.999) with a 25 s ignition ramp.
    !  NOTE: fuel composition goes ON THE REAC (FORMULA=). A standalone
    !  &SPEC ID='PARAFFIN' PLUS &REAC FUEL='PARAFFIN' double-declares the species
    !  and corrupts the species setup in FDS 6.11.x (malloc: corrupted top size,
    !  confirmed on Pleiades). FDS defines the fuel species from FORMULA itself.
    ! ============================================================
    &REAC FUEL='PARAFFIN', FORMULA='C25H52', SOOT_YIELD=0.008, CO_YIELD=0.001,
          HEAT_OF_COMBUSTION=42000, RADIATIVE_FRACTION=0.25 /


    &SURF ID='CANDLE_FLAME', HRRPUA=14.69, TAU_Q=-25.0, COLOR='ORANGE' /
    ! HRRPUA 14.69 kW/m2 x 12.25 cm2 = 18.0 W per candle
    ! (target cup area 10.8 cm2 = 37 mm circle; grid-snapped square = 12.25 cm2)

    ! &PROP ID='TCbead', EMISSIVITY=0.85, DIAMETER=0.001 /  ! for the optional _bead DEVCs; FDS >= ~6.7.4

    ! ============================================================
    !  WALLS  --  assembled from taped/bracketed acrylic panels, not monolithic -- joint contact resistance lumped into a reduced effective conductivity (bracket, not measured)
    !  (the "how much of the late T3 climb is the wall model" axis -- see
    !   VALIDATION_FINDINGS; default 'pmma' is the P03/P04/P05 baseline)
    ! ============================================================
    &MATL ID='PMMA', CONDUCTIVITY=0.10, SPECIFIC_HEAT=1.47, DENSITY=1180.0, EMISSIVITY=0.90 /
    &SURF ID='ACRYLIC_WALL', MATL_ID='PMMA', THICKNESS=0.010, BACKING='EXPOSED',
      COLOR='SKY BLUE', TRANSPARENCY=0.2 /

    ! ---- SEALED outer box: every domain face is closed acrylic (user correction) ----
    &VENT MB='XMIN', SURF_ID='ACRYLIC_WALL' /
    &VENT MB='XMAX', SURF_ID='ACRYLIC_WALL' /
    &VENT MB='YMIN', SURF_ID='ACRYLIC_WALL' /
    &VENT MB='YMAX', SURF_ID='ACRYLIC_WALL' /
    &VENT MB='ZMIN', SURF_ID='ACRYLIC_WALL' /
    &VENT MB='ZMAX', SURF_ID='ACRYLIC_WALL' /

    ! ============================================================
    !  ROOM  --  0-0.70 x, full depth, 0-0.23 z; 10 mm acrylic walls
    !  (room spans the full box depth, so its side walls ARE the box side walls;
    !   its back wall IS the box XMIN face -- only ceiling + doorway wall are OBSTs)
    ! ============================================================
    &OBST XB=0.000,0.710, 0.000,0.300, 0.230,0.240, SURF_ID='ACRYLIC_WALL', TRANSPARENCY=0.2 / room ceiling
    &OBST XB=0.700,0.710, 0.000,0.300, 0.000,0.230, SURF_ID='ACRYLIC_WALL', TRANSPARENCY=0.2 / doorway wall
    &HOLE XB=0.695,0.715, 0.125,0.175, -0.001,0.150 / doorway 0.05 w x 0.15 h, depth-centred

    ! ============================================================
    !  FIRE
    ! ============================================================
    &OBST XB=0.0700,0.1050,0.1300,0.1650,0.0000,0.0050, SURF_ID='INERT', COLOR='GRAY' / candle 1 cup rim
&VENT XB=0.0700,0.1050,0.1300,0.1650,0.0050,0.0050, SURF_ID='CANDLE_FLAME', COLOR='RED' / candle 1 burner top (12.3 cm2, z=5 mm)

    ! ============================================================
    !  DEVICES  --  7 experimental TCs: modelled bead ('T1'..) + gas temp ('T1_gas'..)
    !  Names match the experiment 1:1 for P05 pairing.
    ! ============================================================
    &DEVC ID='T1',      XYZ=0.120,0.150,0.050, QUANTITY='TEMPERATURE' /
! &DEVC ID='T1_bead', XYZ=0.120,0.150,0.050, QUANTITY='THERMOCOUPLE', PROP_ID='TCbead' /
&DEVC ID='T2',      XYZ=0.120,0.150,0.160, QUANTITY='TEMPERATURE' /
! &DEVC ID='T2_bead', XYZ=0.120,0.150,0.160, QUANTITY='THERMOCOUPLE', PROP_ID='TCbead' /
&DEVC ID='T3',      XYZ=0.120,0.150,0.225, QUANTITY='TEMPERATURE' /
! &DEVC ID='T3_bead', XYZ=0.120,0.150,0.225, QUANTITY='THERMOCOUPLE', PROP_ID='TCbead' /
&DEVC ID='T5',      XYZ=0.350,0.150,0.225, QUANTITY='TEMPERATURE' /
! &DEVC ID='T5_bead', XYZ=0.350,0.150,0.225, QUANTITY='THERMOCOUPLE', PROP_ID='TCbead' /
&DEVC ID='T9',      XYZ=0.700,0.150,0.015, QUANTITY='TEMPERATURE' /
! &DEVC ID='T9_bead', XYZ=0.700,0.150,0.015, QUANTITY='THERMOCOUPLE', PROP_ID='TCbead' /
&DEVC ID='T10',      XYZ=0.700,0.150,0.075, QUANTITY='TEMPERATURE' /
! &DEVC ID='T10_bead', XYZ=0.700,0.150,0.075, QUANTITY='THERMOCOUPLE', PROP_ID='TCbead' /
&DEVC ID='T11',      XYZ=0.700,0.150,0.140, QUANTITY='TEMPERATURE' /
! &DEVC ID='T11_bead', XYZ=0.700,0.150,0.140, QUANTITY='THERMOCOUPLE', PROP_ID='TCbead' /
    &DEVC ID='HRR', QUANTITY='HRR', SPATIAL_STATISTIC='VOLUME INTEGRAL', XB=0.00,1.00,0.00,0.30,0.00,0.50 /
    &DEVC ID='O2_room', QUANTITY='VOLUME FRACTION', SPEC_ID='OXYGEN', XYZ=0.35,0.15,0.115 /
    &DEVC ID='p_box',  QUANTITY='PRESSURE', XYZ=0.50,0.15,0.40 /

    ! ---- smoke / two-layer structure (M2): thermally-defined interface height +
    !      layer temperatures at 3 x-stations (over fire / mid-room / near door) ----
    &DEVC ID='zint_fire', QUANTITY='LAYER HEIGHT', XB=0.120,0.120,0.150,0.150,0.000,0.230 /
&DEVC ID='Tupp_fire', QUANTITY='UPPER TEMPERATURE', XB=0.120,0.120,0.150,0.150,0.000,0.230 /
&DEVC ID='Tlow_fire', QUANTITY='LOWER TEMPERATURE', XB=0.120,0.120,0.150,0.150,0.000,0.230 /
&DEVC ID='zint_mid', QUANTITY='LAYER HEIGHT', XB=0.350,0.350,0.150,0.150,0.000,0.230 /
&DEVC ID='Tupp_mid', QUANTITY='UPPER TEMPERATURE', XB=0.350,0.350,0.150,0.150,0.000,0.230 /
&DEVC ID='Tlow_mid', QUANTITY='LOWER TEMPERATURE', XB=0.350,0.350,0.150,0.150,0.000,0.230 /
&DEVC ID='zint_door', QUANTITY='LAYER HEIGHT', XB=0.660,0.660,0.150,0.150,0.000,0.230 /
&DEVC ID='Tupp_door', QUANTITY='UPPER TEMPERATURE', XB=0.660,0.660,0.150,0.150,0.000,0.230 /
&DEVC ID='Tlow_door', QUANTITY='LOWER TEMPERATURE', XB=0.660,0.660,0.150,0.150,0.000,0.230 /


    ! ============================================================
    !  OUTPUT  --  lean: centre-plane temperature + velocity, wall temp
    !  (fine runs add HRRPUV + a plane through the column probes -- see below)
    ! ============================================================
    &SLCF PBY=0.15, QUANTITY='TEMPERATURE', CELL_CENTERED=.TRUE. /
    &SLCF PBY=0.15, QUANTITY='VELOCITY', VECTOR=.TRUE. /
    &SLCF PBY=0.15, QUANTITY='MASS FRACTION', SPEC_ID='SOOT', CELL_CENTERED=.TRUE. /
    &SLCF PBY=0.15, QUANTITY='VISIBILITY', CELL_CENTERED=.TRUE. /


    &BNDF QUANTITY='WALL TEMPERATURE' /

    &TAIL /
